*SPEF "1481-1998"
*DESIGN "UART"
*DATE "Mon Nov 19 02:52:00 2018"
*VENDOR "Synopsys, Inc."
*PROGRAM "icc_shell"
*VERSION "G-2012.06-ICC-SP2"
*DESIGN_FLOW "PIN_CAP NONE"
*DIVIDER /
*DELIMITER :
*BUS_DELIMITER [ ]
*T_UNIT 1 NS
*C_UNIT 1 FF
*R_UNIT 1 OHM
*L_UNIT 1 HENRY

*NAME_MAP
*1 tx_data[5]
*2 tx_data[4]
*3 tx_data[3]
*4 tx_data[2]
*5 tx_data[1]
*6 tx_data[0]
*7 tx_out[5]
*8 tx_out[4]
*9 tx_out[3]
*10 tx_out[2]
*11 tx_out[1]
*12 tx_out[0]
*13 tx_data[7]
*14 tx_data[6]
*15 tstate[1]
*16 tstate[0]
*17 tcount[3]
*18 tcount[2]
*19 tcount[1]
*20 tcount[0]
*21 tx_out[7]
*22 tx_out[6]
*23 rx_out[5]
*24 rx_out[4]
*25 rx_out[3]
*26 rx_out[2]
*27 rx_out[1]
*28 rx_out[0]
*29 tstate[3]
*30 tstate[2]
*31 rstate[1]
*32 rstate[0]
*33 rcount[3]
*34 rcount[2]
*35 rcount[1]
*36 rcount[0]
*37 rx_out[7]
*38 rx_out[6]
*39 rxrxout[5]
*40 rxrxout[4]
*41 rxrxout[3]
*42 rxrxout[2]
*43 rxrxout[1]
*44 rxrxout[0]
*45 rstate[3]
*46 rstate[2]
*47 tx_busy
*48 rx_rdy
*49 tx_rdy
*50 reset
*51 clkb
*52 clka
*53 rxrxout[7]
*54 rxrxout[6]
*55 match
*56 rx_idle
*57 rx_error
*58 rx_done
*59 rx_busy
*60 tx_idle
*61 tx_error
*62 tx_done
*63 rx_data\[6\]
*64 U266
*65 U78
*66 dp1_d1_q_reg_6_
*67 rx_rtmpout\[6\]
*68 rx_rtmpout_reg_6_
*69 n82
*70 U3
*71 rx_data\[5\]
*72 U265
*73 dp1_d1_q_reg_5_
*74 rx_rtmpout\[5\]
*75 rx_rtmpout_reg_5_
*76 n83
*77 U264
*78 U83
*79 U62
*80 tx_ttmpout\[6\]
*81 tx_ttmpout_reg_6_
*82 n74
*83 U4
*84 U263
*85 U189
*86 U66
*87 tx_ttmpout\[5\]
*88 tx_ttmpout_reg_5_
*89 n75
*90 n6
*91 U231
*92 U156
*93 U155
*94 U137
*95 U134
*96 U131
*97 U13
*98 U18
*99 U257
*100 n11
*101 rx_next_rstate_reg_1_
*102 rx_next_rstate_reg_2_
*103 rx_next_rstate_reg_0_
*104 tx_next_tstate_reg_0_
*105 tx_next_tstate_reg_1_
*106 tx_next_tstate_reg_2_
*107 U256
*108 U217
*109 tx_tx_out_reg_0_
*110 n14
*111 U255
*112 U254
*113 U253
*114 U252
*115 U251
*116 U250
*117 U25
*118 dp1_d1_N2
*119 dp1_d1_q_reg_0_
*120 U219
*121 tx_tx_out_reg_2_
*122 dp1_d1_N4
*123 dp1_d1_q_reg_2_
*124 U215
*125 tx_tx_out_reg_3_
*126 dp1_d1_N5
*127 dp1_d1_q_reg_3_
*128 U213
*129 tx_tx_out_reg_4_
*130 dp1_d1_N6
*131 dp1_d1_q_reg_4_
*132 U211
*133 tx_tx_out_reg_5_
*134 dp1_d1_N7
*135 U209
*136 tx_tx_out_reg_6_
*137 dp1_d1_N8
*138 U221
*139 tx_tx_out_reg_7_
*140 dp1_d1_N9
*141 dp1_d1_q_reg_7_
*142 U249
*143 U204
*144 rx_rx_out_reg_0_
*145 n13
*146 U23
*147 U248
*148 U247
*149 U246
*150 U245
*151 U244
*152 U243
*153 U242
*154 dp2_d1_N2
*155 dp2_d1_q_reg_0_
*156 U192
*157 rx_rx_out_reg_1_
*158 dp2_d1_N3
*159 dp2_d1_q_reg_1_
*160 U202
*161 rx_rx_out_reg_2_
*162 dp2_d1_N4
*163 dp2_d1_q_reg_2_
*164 U200
*165 rx_rx_out_reg_3_
*166 dp2_d1_N5
*167 dp2_d1_q_reg_3_
*168 U198
*169 rx_rx_out_reg_4_
*170 dp2_d1_N6
*171 dp2_d1_q_reg_4_
*172 U196
*173 rx_rx_out_reg_5_
*174 dp2_d1_N7
*175 dp2_d1_q_reg_5_
*176 U194
*177 rx_rx_out_reg_6_
*178 dp2_d1_N8
*179 dp2_d1_q_reg_6_
*180 U206
*181 rx_rx_out_reg_7_
*182 dp2_d1_N9
*183 dp2_d1_q_reg_7_
*184 n31
*185 U241
*186 U128
*187 U125
*188 U124
*189 U29
*190 U42
*191 tx_tstate_reg_3_
*192 tx_n119
*193 n45
*194 U240
*195 U123
*196 U122
*197 U121
*198 U28
*199 U41
*200 rx_rstate_reg_3_
*201 rx_n122
*202 n81
*203 U239
*204 U100
*205 n80
*206 U94
*207 n79
*208 U185
*209 n84
*210 U238
*211 U82
*212 U67
*213 n20
*214 U103
*215 U99
*216 U237
*217 n55
*218 U58
*219 U55
*220 rx_data\[2\]
*221 U236
*222 U79
*223 n53
*224 U101
*225 U96
*226 U1
*227 U234
*228 tx_tx_done_reg
*229 n15
*230 U233
*231 U126
*232 U30
*233 U26
*234 dp1_d1_n3
*235 rx_rx_done_reg
*236 n85
*237 tx_n91
*238 U232
*239 U111
*240 U31
*241 tx_n32
*242 U222
*243 tx_n124
*244 rx_n59
*245 U104
*246 U32
*247 rx_n39
*248 U191
*249 rx_n109
*250 tx_n85
*251 U230
*252 U105
*253 U34
*254 U182
*255 U172
*256 U168
*257 U110
*258 U89
*259 U84
*260 tx_tcount_reg_1_
*261 U148
*262 U81
*263 tx_tcount_reg_2_
*264 tx_n37
*265 U228
*266 U184
*267 tx_tcount_reg_3_
*268 tx_n84
*269 tx_n86
*270 U229
*271 U181
*272 n35
*273 U146
*274 U88
*275 U80
*276 U22
*277 U6
*278 tx_n38
*279 U180
*280 U141
*281 U92
*282 tx_n83
*283 tx_n116
*284 rx_n85
*285 U227
*286 U127
*287 U120
*288 U116
*289 U113
*290 U5
*291 n48
*292 U226
*293 rx_n76
*294 U115
*295 U70
*296 U164
*297 U160
*298 U152
*299 U77
*300 U74
*301 rx_rcount_reg_2_
*302 rx_n25
*303 U224
*304 U117
*305 U109
*306 rx_rcount_reg_3_
*307 rx_n88
*308 rx_n89
*309 U225
*310 U114
*311 U91
*312 n49
*313 U150
*314 U87
*315 U76
*316 U20
*317 rx_n26
*318 rx_n87
*319 rx_n118
*320 U223
*321 tx_tx_out_reg_1_
*322 n5
*323 U17
*324 U14
*325 tx_n52
*326 tx_n45
*327 U220
*328 U218
*329 U216
*330 U214
*331 U212
*332 U210
*333 U208
*334 tx_n107
*335 tx_n46
*336 tx_n22
*337 U145
*338 tx_ttmpout_reg_7_
*339 tx_n101
*340 tx_n51
*341 tx_n28
*342 U177
*343 tx_ttmpout_reg_2_
*344 tx_n106
*345 tx_n53
*346 tx_n31
*347 U142
*348 tx_tx_error_reg
*349 tx_n108
*350 tx_n50
*351 tx_n27
*352 U173
*353 U102
*354 tx_ttmpout_reg_3_
*355 tx_n105
*356 tx_n49
*357 tx_n26
*358 U169
*359 tx_ttmpout_reg_4_
*360 tx_n104
*361 tx_n48
*362 tx_n25
*363 U165
*364 tx_n103
*365 tx_n47
*366 tx_n23
*367 U138
*368 tx_n102
*369 U207
*370 U85
*371 U69
*372 rx_rcount_reg_0_
*373 rx_n28
*374 rx_rcount_reg_1_
*375 rx_n83
*376 U27
*377 rx_n50
*378 U16
*379 rx_n49
*380 U205
*381 rx_n48
*382 U15
*383 U203
*384 U201
*385 U199
*386 U197
*387 U195
*388 U193
*389 rx_n32
*390 U149
*391 rx_rtmpout_reg_7_
*392 rx_n101
*393 rx_n57
*394 rx_n30
*395 U153
*396 rx_rx_error_reg
*397 rx_n108
*398 rx_n55
*399 rx_n38
*400 U135
*401 rx_rtmpout_reg_2_
*402 rx_n106
*403 rx_n54
*404 rx_n37
*405 U132
*406 rx_rtmpout_reg_3_
*407 rx_n105
*408 rx_n53
*409 rx_n36
*410 U129
*411 rx_rtmpout_reg_4_
*412 rx_n104
*413 rx_n52
*414 rx_n35
*415 U161
*416 rx_n103
*417 rx_n51
*418 rx_n33
*419 U157
*420 rx_n102
*421 rx_n56
*422 rx_n107
*423 tx_next_tstate_0_
*424 U190
*425 tx_n20
*426 U108
*427 U68
*428 tx_next_tstate_2_
*429 tx_n54
*430 U186
*431 U64
*432 tx_n41
*433 U119
*434 tx_tcount_reg_0_
*435 U188
*436 U176
*437 tx_n80
*438 U187
*439 tx_n39
*440 U98
*441 U63
*442 tx_n81
*443 tx_n79
*444 tx_ttmpout\[4\]
*445 n71
*446 U90
*447 rx_data\[4\]
*448 rx_rtmpout\[4\]
*449 tx_n78
*450 U33
*451 tx_n94
*452 U183
*453 tx_n93
*454 U112
*455 U19
*456 U7
*457 tx_n29
*458 U48
*459 tx_tx_busy_reg
*460 tx_n89
*461 tx_n125
*462 tx_n87
*463 n29
*464 n34
*465 tx_n117
*466 tx_n92
*467 U2
*468 U179
*469 U175
*470 U171
*471 U167
*472 U144
*473 n30
*474 tx_n68
*475 tx_n74
*476 U178
*477 n24
*478 tx_n59
*479 U147
*480 tx_n115
*481 tx_n73
*482 tx_n72
*483 U174
*484 n25
*485 tx_n114
*486 tx_n71
*487 tx_n70
*488 U170
*489 n26
*490 tx_n113
*491 tx_n69
*492 tx_n67
*493 U166
*494 n27
*495 tx_n112
*496 rx_n74
*497 rx_n73
*498 U163
*499 rx_n94
*500 U159
*501 U118
*502 U71
*503 U21
*504 rx_n69
*505 rx_n72
*506 U162
*507 n40
*508 rx_n63
*509 U151
*510 rx_n113
*511 n43
*512 rx_n70
*513 rx_n68
*514 U158
*515 n41
*516 rx_n112
*517 rx_n67
*518 U72
*519 n3
*520 rx_data\[0\]
*521 rx_n66
*522 rx_n65
*523 U154
*524 n51
*525 rx_n111
*526 rx_n64
*527 rx_n62
*528 n42
*529 rx_n61
*530 rx_n60
*531 U9
*532 n46
*533 U93
*534 rx_n110
*535 tx_n58
*536 n18
*537 tx_n57
*538 tx_n56
*539 U10
*540 n32
*541 U107
*542 tx_n109
*543 tx_n61
*544 tx_n60
*545 U143
*546 n4
*547 tx_n62
*548 tx_n110
*549 tx_n65
*550 U140
*551 tx_n64
*552 U106
*553 tx_n63
*554 U139
*555 n28
*556 tx_n111
*557 rx_n77
*558 rx_n79
*559 U136
*560 n37
*561 rx_n116
*562 rx_n78
*563 U133
*564 n38
*565 rx_n115
*566 rx_n75
*567 U130
*568 n39
*569 rx_n114
*570 tx_n19
*571 U75
*572 tx_n90
*573 tx_n34
*574 tx_tstate_reg_2_
*575 tx_U109
*576 tx_n120
*577 rx_n92
*578 rx_n120
*579 tx_n35
*580 U49
*581 U40
*582 tx_tstate_reg_1_
*583 tx_n121
*584 tx_n21
*585 tx_n36
*586 U39
*587 tx_tstate_reg_0_
*588 tx_n122
*589 rx_n22
*590 U86
*591 U73
*592 rx_n93
*593 rx_n42
*594 U44
*595 rx_rstate_reg_2_
*596 rx_U109
*597 rx_n123
*598 rx_n23
*599 rx_n43
*600 U45
*601 U37
*602 rx_rstate_reg_1_
*603 rx_n124
*604 rx_n24
*605 rx_n44
*606 U36
*607 rx_rstate_reg_0_
*608 rx_n126
*609 rx_n84
*610 U8
*611 rx_n29
*612 rx_n121
*613 tx_n126
*614 n47
*615 rx_n31
*616 rx_rx_idle_reg
*617 rx_n125
*618 rx_n86
*619 rx_n40
*620 rx_rx_busy_reg
*621 rx_n117
*622 rx_n90
*623 n44
*624 rx_n119
*625 n33
*626 tx_n30
*627 tx_tx_idle_reg
*628 tx_n123
*629 tx_next_tstate_1_
*630 tx_n88
*631 tx_n118
*632 tx_n82
*633 rx_next_rstate_1_
*634 rx_next_rstate_0_
*635 tx_ttmpout\[2\]
*636 n69
*637 n73
*638 rx_rtmpout\[2\]
*639 n77
*640 rx_data\[3\]
*641 U95
*642 n70
*643 U97
*644 n19
*645 tx_ttmpout\[3\]
*646 n72
*647 n78
*648 n54
*649 rx_rtmpout\[3\]
*650 rx_n91
*651 n76
*652 U65
*653 tx_n77
*654 tx_n76
*655 tx_n75
*656 rx_n81
*657 rx_data\[7\]
*658 rx_n82
*659 rx_n80
*660 rx_n58
*661 n62
*662 U61
*663 n65
*664 U60
*665 n61
*666 n64
*667 n63
*668 n66
*669 n60
*670 U56
*671 n59
*672 U53
*673 n68
*674 U59
*675 n67
*676 n57
*677 U57
*678 n21
*679 U54
*680 n58
*681 n56
*682 tx_n95
*683 U52
*684 U12
*685 tx_n96
*686 tx_N780
*687 rx_n95
*688 U51
*689 U11
*690 rx_n96
*691 rx_N790
*692 U50
*693 n22
*694 U38
*695 tx_n99
*696 U47
*697 tx_n100
*698 n17
*699 tx_N760
*700 U46
*701 n23
*702 U35
*703 rx_n99
*704 U43
*705 rx_n100
*706 n16
*707 rx_N770
*708 tx_n98
*709 tx_n97
*710 tx_N770
*711 rx_n98
*712 rx_n97
*713 rx_N780
*714 dp1_d1_N1
*715 dp2_d1_N1
*716 n50
*717 n1
*718 n2

*PORTS
*1 I *L 0.0 *S 0.0 0.0
*2 I *L 0.0 *S 0.0 0.0
*3 I *L 0.0 *S 0.0 0.0
*4 I *L 0.0 *S 0.0 0.0
*5 I *L 0.0 *S 0.0 0.0
*6 I *L 0.0 *S 0.0 0.0
*7 O *L 0.0 *S 0.0 0.0
*8 O *L 0.0 *S 0.0 0.0
*9 O *L 0.0 *S 0.0 0.0
*10 O *L 0.0 *S 0.0 0.0
*11 O *L 0.0 *S 0.0 0.0
*12 O *L 0.0 *S 0.0 0.0
*13 I *L 0.0 *S 0.0 0.0
*14 I *L 0.0 *S 0.0 0.0
*15 O *L 0.0 *S 0.0 0.0
*16 O *L 0.0 *S 0.0 0.0
*17 O *L 0.0 *S 0.0 0.0
*18 O *L 0.0 *S 0.0 0.0
*19 O *L 0.0 *S 0.0 0.0
*20 O *L 0.0 *S 0.0 0.0
*21 O *L 0.0 *S 0.0 0.0
*22 O *L 0.0 *S 0.0 0.0
*23 O *L 0.0 *S 0.0 0.0
*24 O *L 0.0 *S 0.0 0.0
*25 O *L 0.0 *S 0.0 0.0
*26 O *L 0.0 *S 0.0 0.0
*27 O *L 0.0 *S 0.0 0.0
*28 O *L 0.0 *S 0.0 0.0
*29 O *L 0.0 *S 0.0 0.0
*30 O *L 0.0 *S 0.0 0.0
*31 O *L 0.0 *S 0.0 0.0
*32 O *L 0.0 *S 0.0 0.0
*33 O *L 0.0 *S 0.0 0.0
*34 O *L 0.0 *S 0.0 0.0
*35 O *L 0.0 *S 0.0 0.0
*36 O *L 0.0 *S 0.0 0.0
*37 O *L 0.0 *S 0.0 0.0
*38 O *L 0.0 *S 0.0 0.0
*39 O *L 0.0 *S 0.0 0.0
*40 O *L 0.0 *S 0.0 0.0
*41 O *L 0.0 *S 0.0 0.0
*42 O *L 0.0 *S 0.0 0.0
*43 O *L 0.0 *S 0.0 0.0
*44 O *L 0.0 *S 0.0 0.0
*45 O *L 0.0 *S 0.0 0.0
*46 O *L 0.0 *S 0.0 0.0
*47 O *L 0.0 *S 0.0 0.0
*48 I *L 0.0 *S 0.0 0.0
*49 I *L 0.0 *S 0.0 0.0
*50 I *L 0.0 *S 0.0 0.0
*51 I *L 0.0 *S 0.0 0.0
*52 I *L 0.0 *S 0.0 0.0
*53 O *L 0.0 *S 0.0 0.0
*54 O *L 0.0 *S 0.0 0.0
*55 O *L 0.0 *S 0.0 0.0
*56 O *L 0.0 *S 0.0 0.0
*57 O *L 0.0 *S 0.0 0.0
*58 O *L 0.0 *S 0.0 0.0
*59 O *L 0.0 *S 0.0 0.0
*60 O *L 0.0 *S 0.0 0.0
*61 O *L 0.0 *S 0.0 0.0
*62 O *L 0.0 *S 0.0 0.0

*D_NET *63 4.188613

*CONN
*I *64:A I *L 2188.621 *C 65.342 54.76
*I *65:A1 I *L 1525.232 *C 65.96 64.5
*I *66:Q O *L 0.0 *D DLH_X1 *C 27.062 53.407
*N *63:4 *C 65.96 64.5
*N *63:5 *C 65.96 64.137
*N *63:6 *C 65.96 64.137
*N *63:7 *C 66.072 64.06
*N *63:8 *C 66.072 55.7
*N *63:9 *C 66.072 55.7
*N *63:10 *C 27.062 53.407
*N *63:11 *C 65.342 54.76
*N *63:12 *C 65.2 55.017
*N *63:13 *C 65.2 55.017
*N *63:14 *C 26.82 53.117
*N *63:15 *C 26.82 53.117
*N *63:16 *C 34.99 53.04
*N *63:17 *C 34.99 53.04
*N *63:18 *C 34.92 53.085
*N *63:19 *C 44.23 53.02
*N *63:20 *C 44.23 53.02
*N *63:21 *C 44.3 51.597
*N *63:22 *C 44.3 51.597
*N *63:23 *C 45.82 51.597
*N *63:24 *C 45.82 51.597
*N *63:25 *C 45.82 49.697
*N *63:26 *C 45.82 49.697
*N *63:27 *C 46.312 49.62
*N *63:28 *C 46.312 49.62
*N *63:29 *C 46.312 48.1
*N *63:30 *C 46.312 48.1
*N *63:31 *C 54.18 48.177
*N *63:32 *C 54.18 48.177
*N *63:33 *C 54.18 55.017
*N *63:34 *C 54.18 55.017
*N *63:35 *C 26.82 53.58
*N *63:36 *C 27.062 53.545
*N *63:37 *C 54.18 54.7
*N *63:38 *C 65.2 55.7

*CAP
1 *64:A 0.0
2 *65:A1 0.0
3 *66:Q 0.01405139
4 *63:4 0.03199413
5 *63:5 0.01382784
6 *63:6 0.03157342
7 *63:7 0.2450986
8 *63:8 0.2289095
9 *63:9 0.02400635
10 *63:10 0.02331058
11 *63:11 0.02289605
12 *63:12 0.3317742
13 *63:13 0.02247534
14 *63:14 0.2409556
15 *63:15 0.01716722
16 *63:16 0.2409556
17 *63:17 0.01407661
18 *63:18 0.4643608
19 *63:19 0.0735902
20 *63:20 0.4485467
21 *63:21 0.06285616
22 *63:22 0.07316948
23 *63:23 0.06285616
24 *63:24 0.06866375
25 *63:25 0.02484179
26 *63:26 0.06866375
27 *63:27 0.04061941
28 *63:28 0.02463874
29 *63:29 0.04061941
30 *63:30 0.2319321
31 *63:31 0.2321351
32 *63:32 0.176541
33 *63:33 0.307021
34 *63:34 0.01196079
35 *63:35 0.02476536
36 *63:36 0.003819232
37 *63:37 0.1928182
38 *63:38 0.05112076

*RES
1 *63:4 *65:A1 2.982249
2 *63:5 *63:6 2.5
3 *63:7 *63:5 2.5
4 *63:8 *63:9 2.5
5 *63:10 *66:Q 2.982249
6 *63:11 *64:A 2.982249
7 *63:12 *63:13 2.5
8 *63:14 *63:15 2.5
9 *63:16 *63:17 2.5
10 *63:17 *63:18 2.982249
11 *63:19 *63:20 2.982249
12 *63:21 *63:22 2.5
13 *63:23 *63:24 2.5
14 *63:25 *63:26 2.5
15 *63:27 *63:28 2.5
16 *63:29 *63:30 2.5
17 *63:31 *63:32 2.5
18 *63:33 *63:34 2.5
19 *63:18 *63:20 56.03539
20 *63:15 *63:35 2.303572
21 *63:35 *63:10 0.7410714
22 *63:10 *63:36 0.125
23 *63:22 *63:19 5.366072
24 *63:26 *63:24 7.839286
25 *63:32 *63:37 23.82143
26 *63:37 *63:34 1.660714
27 *63:11 *63:13 1.205357
28 *63:6 *63:4 1.455357
29 *63:14 *63:16 28.80357
30 *63:21 *63:23 4.928572
31 *63:25 *63:28 2.035714
32 *63:30 *63:31 28.375
33 *63:33 *63:12 38.85715
34 *63:12 *63:38 2.424286
35 *63:38 *63:9 3.517857
36 *63:29 *63:27 2.28
37 *63:8 *63:7 12.54

*END

*D_NET *67 0.5466676

*CONN
*I *64:B I *L 2339.773 *C 65.65 54.94
*I *68:Q O *L 0.0 *D DFF_X1 *C 70.045 58.905
*N *67:3 *C 65.65 54.94
*N *67:4 *C 65.58 55.017
*N *67:5 *C 69.76 55.017
*N *67:6 *C 69.76 55.017
*N *67:7 *C 69.69 58.48
*N *67:8 *C 69.69 58.48

*CAP
1 *64:B 0.0
2 *68:Q 0.02417318
3 *67:3 0.02529974
4 *67:4 0.1479951
5 *67:5 0.1205371
6 *67:6 0.102903
7 *67:7 0.1033238
8 *67:8 0.0224357

*RES
1 *67:3 *64:B 2.982249
2 *67:4 *67:3 2.5
3 *67:5 *67:6 2.5
4 *67:7 *67:8 2.982249
5 *67:8 *68:Q 2.674615
6 *67:6 *67:7 12.65178
7 *67:4 *67:5 14.42857

*END

*D_NET *69 0.6444137

*CONN
*I *64:Z O *L 0.0 *D XOR2_X1 *C 65.305 54.25
*I *70:A3 I *L 867.216 *C 60.123 58.97
*N *69:3 *C 65.46 54.42
*N *69:4 *C 65.46 54.42
*N *69:5 *C 65.39 54.482
*N *69:6 *C 60.07 54.637
*N *69:7 *C 60.07 54.637
*N *69:8 *C 60.123 58.97
*N *69:9 *C 60.07 58.883
*N *69:10 *C 60.123 58.883

*CAP
1 *64:Z 0.01485096
2 *70:A3 0.0
3 *69:3 0.01493172
4 *69:4 0.01311348
5 *69:5 0.1791787
6 *69:6 0.1620888
7 *69:7 0.1219478
8 *69:8 0.1303353
9 *69:9 0.003391603
10 *69:10 0.004575198

*RES
1 *64:Z *69:4 1.607693
2 *69:3 *69:4 2.982249
3 *69:5 *69:3 2.5
4 *69:6 *69:7 2.5
5 *69:8 *70:A3 2.982249
6 *69:7 *69:8 15.57143
7 *69:8 *69:9 0.124878
8 *69:8 *69:10 0.1249275
9 *69:6 *69:5 18.625

*END

*D_NET *71 3.271847

*CONN
*I *72:A I *L 2188.621 *C 60.952 58.842
*I *65:C1 I *L 1479.041 *C 66.91 64.64
*I *73:Q O *L 0.0 *D DLH_X1 *C 22.07 56.38
*N *71:4 *C 61.33 61.56
*N *71:5 *C 61.33 61.56
*N *71:6 *C 66.98 61.56
*N *71:7 *C 66.98 61.56
*N *71:8 *C 66.91 64.64
*N *71:9 *C 60.952 58.842
*N *71:10 *C 22.07 56.38
*N *71:11 *C 22.07 57.297
*N *71:12 *C 22.07 57.297
*N *71:13 *C 57.79 56.917
*N *71:14 *C 57.79 56.917
*N *71:15 *C 57.867 57.98
*N *71:16 *C 57.867 57.98
*N *71:17 *C 60.83 58.057
*N *71:18 *C 60.83 58.057
*N *71:19 *C 60.83 58.9
*N *71:20 *C 61.378 58.9
*N *71:21 *C 54.56 57.22
*N *71:22 *C 54.56 56.84

*CAP
1 *72:A 0.0
2 *65:C1 0.0125781
3 *73:Q 0.01553176
4 *71:4 0.07327239
5 *71:5 0.2421187
6 *71:6 0.119181
7 *71:7 0.2421187
8 *71:8 0.1334966
9 *71:9 0.05268875
10 *71:10 0.05749188
11 *71:11 0.841705
12 *71:12 0.03980192
13 *71:13 0.09017298
14 *71:14 0.0434847
15 *71:15 0.08881965
16 *71:16 0.0434847
17 *71:17 0.08881965
18 *71:18 0.0313282
19 *71:19 0.002376088
20 *71:20 0.09357361
21 *71:21 0.8556677
22 *71:22 0.1041356

*RES
1 *71:4 *71:5 2.982249
2 *71:6 *71:7 2.982249
3 *71:8 *65:C1 2.982249
4 *71:9 *72:A 2.982249
5 *71:10 *73:Q 2.982249
6 *71:11 *71:12 2.5
7 *71:13 *71:14 2.5
8 *71:15 *71:16 2.5
9 *71:17 *71:18 2.5
10 *71:5 *71:7 34.63847
11 *71:10 *71:12 3.5625
12 *71:14 *71:16 4.071428
13 *71:18 *71:9 3.272142
14 *71:9 *71:19 0.125
15 *71:9 *71:20 1.280357
16 *71:20 *71:4 9.133928
17 *71:6 *71:8 10.39286
18 *71:11 *71:21 115.9107
19 *71:22 *71:21 1.357143
20 *71:22 *71:13 11.16071
21 *71:15 *71:17 10.85714

*END

*D_NET *74 2.523309

*CONN
*I *72:B I *L 2339.773 *C 61.522 59.007
*I *75:Q O *L 0.0 *D DFF_X1 *C 87.075 58.48
*N *74:3 *C 61.09 58.62
*N *74:4 *C 61.09 58.62
*N *74:5 *C 60.95 57.64
*N *74:6 *C 60.95 57.64
*N *74:7 *C 86.6 57.64
*N *74:8 *C 86.6 57.64
*N *74:9 *C 87.075 58.48
*N *74:10 *C 86.67 58.48

*CAP
1 *72:B 0.01427745
2 *75:Q 0.01596439
3 *74:3 0.05029043
4 *74:4 0.01253997
5 *74:5 0.05029043
6 *74:6 1.137082
7 *74:7 0.02936193
8 *74:8 1.137082
9 *74:9 0.03064302
10 *74:10 0.04577804

*RES
1 *72:B *74:4 0.577037
2 *74:3 *74:4 2.982249
3 *74:5 *74:6 2.982249
4 *74:7 *74:8 2.982249
5 *74:9 *75:Q 2.982249
6 *74:6 *74:8 151.5615
7 *74:5 *74:3 3.258929
8 *74:7 *74:10 2.883929
9 *74:10 *74:9 1.8125

*END

*D_NET *76 0.09311606

*CONN
*I *72:Z O *L 0.0 *D XOR2_X1 *C 61.295 59.35
*I *70:A2 I *L 884.109 *C 60.344 59.04
*N *76:3 *C 60.344 59.04
*N *76:4 *C 61.14 59.18
*N *76:5 *C 61.14 59.18
*N *76:6 *C 60.344 59.18

*CAP
1 *72:Z 0.01495263
2 *70:A2 0.0
3 *76:3 0.005428201
4 *76:4 0.02574283
5 *76:5 0.01321515
6 *76:6 0.03377725

*RES
1 *76:3 *70:A2 5.964498
2 *72:Z *76:5 1.607693
3 *76:4 *76:5 2.982249
4 *76:3 *76:6 0.6250001
5 *76:6 *76:4 2.35

*END

*D_NET *14 3.932404

*CONN
*I *77:A I *L 2188.621 *C 46.542 29.43
*I *78:A1 I *L 1586.691 *C 54.32 34.05
*I *79:A I *L 2172.764 *C 52.73 25.58
*P *14 I *C 62.16 0.035
*N *14:5 *C 52.66 34.117
*N *14:6 *C 52.66 34.117
*N *14:7 *C 54.56 34.117
*N *14:8 *C 54.56 34.117
*N *14:9 *C 54.32 34.05
*N *14:10 *C 52.73 25.58
*N *14:11 *C 62.237 39.74
*N *14:12 *C 62.237 39.74
*N *14:13 *C 54.637 39.74
*N *14:14 *C 54.637 39.74
*N *14:15 *C 46.542 29.43
*N *14:16 *C 46.542 29.177
*N *14:17 *C 46.542 29.177
*N *14:18 *C 52.66 29.177
*N *14:19 *C 52.66 29.177

*CAP
1 *77:A 0.0
2 *78:A1 0.01123649
3 *79:A 0.0
4 *14 1.042696
5 *14:5 0.07225402
6 *14:6 0.1323226
7 *14:7 0.07225402
8 *14:8 0.200309
9 *14:9 0.02524141
10 *14:10 0.1032662
11 *14:11 0.2088001
12 *14:12 1.040538
13 *14:13 0.2088001
14 *14:14 0.186304
15 *14:15 0.01828594
16 *14:16 0.1774523
17 *14:17 0.01786522
18 *14:18 0.1774523
19 *14:19 0.2373263

*RES
1 *14:5 *14:6 2.5
2 *14:7 *14:8 2.5
3 *14:9 *78:A1 2.982249
4 *14:10 *79:A 2.982249
5 *14:11 *14:12 2.5
6 *14:13 *14:14 2.5
7 *14:15 *77:A 2.982249
8 *14:16 *14:17 2.5
9 *14:18 *14:19 2.5
10 *14:17 *14:15 0.9305556
11 *14:10 *14:19 12.60714
12 *14:19 *14:6 18.16964
13 *14:9 *14:8 0.4910714
14 *14:8 *14:14 19.62964
15 *14 *14:12 141.4286
16 *14:16 *14:18 21.34821
17 *14:5 *14:7 6.285715
18 *14:13 *14:11 28.19643

*END

*D_NET *80 0.7896633

*CONN
*I *77:B I *L 2339.773 *C 46.13 29.745
*I *81:Q O *L 0.0 *D DFF_X1 *C 34.135 28.45
*N *80:3 *C 34.135 28.45
*N *80:4 *C 34.23 29.937
*N *80:5 *C 34.23 29.937
*N *80:6 *C 46.2 29.782
*N *80:7 *C 46.2 29.782

*CAP
1 *77:B 0.0131586
2 *81:Q 0.0
3 *80:3 0.05268345
4 *80:4 0.3291999
5 *80:5 0.05226273
6 *80:6 0.3291999
7 *80:7 0.0131586

*RES
1 *80:3 *81:Q 2.982249
2 *80:4 *80:5 2.5
3 *80:6 *80:7 2.5
4 *80:7 *77:B 2.982249
5 *80:3 *80:5 5.473214
6 *80:4 *80:6 42.375

*END

*D_NET *82 0.5483512

*CONN
*I *77:Z O *L 0.0 *D XOR2_X1 *C 46.475 29.05
*I *83:A3 I *L 867.216 *C 48.902 33.77
*N *82:3 *C 48.93 29.22
*N *82:4 *C 48.93 29.22
*N *82:5 *C 48.902 33.77
*N *82:6 *C 48.86 33.823
*N *82:7 *C 48.902 33.823

*CAP
1 *77:Z 0.1003905
2 *83:A3 0.0
3 *82:3 0.1684336
4 *82:4 0.098653
5 *82:5 0.1746539
6 *82:6 0.003490375
7 *82:7 0.002729932

*RES
1 *82:3 *82:4 2.982249
2 *82:5 *83:A3 2.982249
3 *77:Z *82:4 13.14683
4 *82:3 *82:5 15.82572
5 *82:5 *82:6 0.124878
6 *82:5 *82:7 0.125

*END

*D_NET *1 3.507514

*CONN
*I *84:A I *L 2188.621 *C 50.637 29.56
*I *85:B1 I *L 1503.143 *C 54.602 30.83
*I *86:A I *L 2172.764 *C 59.5 29.43
*P *1 I *C 69.0 0.035
*N *1:5 *C 50.637 29.56
*N *1:6 *C 50.57 30.697
*N *1:7 *C 50.57 30.697
*N *1:8 *C 68.93 5.56
*N *1:9 *C 68.93 5.56
*N *1:10 *C 55.44 5.56
*N *1:11 *C 55.44 5.56
*N *1:12 *C 55.51 30.697
*N *1:13 *C 55.51 30.697
*N *1:14 *C 59.5 29.43
*N *1:15 *C 59.577 29.1
*N *1:16 *C 59.577 29.1
*N *1:17 *C 55.51 29.177
*N *1:18 *C 55.51 29.177
*N *1:19 *C 54.602 30.83
*N *1:20 *C 54.56 30.697

*CAP
1 *84:A 0.0
2 *85:B1 0.01119275
3 *86:A 0.01257664
4 *1 0.1486895
5 *1:5 0.04557516
6 *1:6 0.1106546
7 *1:7 0.04515445
8 *1:8 0.146952
9 *1:9 0.553771
10 *1:10 0.6213382
11 *1:11 0.553771
12 *1:12 0.04359453
13 *1:13 0.04323878
14 *1:14 0.03765363
15 *1:15 0.119503
16 *1:16 0.0229188
17 *1:17 0.119503
18 *1:18 0.6663145
19 *1:19 0.02973884
20 *1:20 0.1753741

*RES
1 *1:5 *84:A 2.982249
2 *1:6 *1:7 2.5
3 *1:8 *1:9 2.982249
4 *1:10 *1:11 2.982249
5 *1:12 *1:13 2.5
6 *1:14 *86:A 2.982249
7 *1:15 *1:16 2.5
8 *1:17 *1:18 2.5
9 *1:19 *85:B1 2.982249
10 *1:20 *1:19 2.5
11 *1:11 *1:9 80.47231
12 *1:5 *1:7 4.348214
13 *1:10 *1:18 84.10714
14 *1:18 *1:13 5.955357
15 *1:16 *1:14 0.5625001
16 *1 *1:8 19.36607
17 *1:6 *1:20 14.0
18 *1:20 *1:12 3.142857
19 *1:17 *1:15 14.80357

*END

*D_NET *87 0.706607

*CONN
*I *84:B I *L 2339.773 *C 50.38 29.78
*I *88:Q O *L 0.0 *D DFF_X1 *C 41.735 28.105
*N *87:3 *C 41.95 28.52
*N *87:4 *C 41.95 28.52
*N *87:5 *C 42.02 29.557
*N *87:6 *C 42.02 29.557
*N *87:7 *C 50.38 29.557
*N *87:8 *C 50.38 29.557

*CAP
1 *84:B 0.05017286
2 *88:Q 0.02110123
3 *87:3 0.04100952
4 *87:4 0.01936375
5 *87:5 0.242099
6 *87:6 0.0405888
7 *87:7 0.242099
8 *87:8 0.05017286

*RES
1 *87:3 *87:4 2.982249
2 *87:5 *87:6 2.5
3 *87:7 *87:8 2.5
4 *87:8 *84:B 2.982249
5 *88:Q *87:4 1.333149
6 *87:3 *87:6 3.991072
7 *87:5 *87:7 29.35714

*END

*D_NET *89 0.3812536

*CONN
*I *84:Z O *L 0.0 *D XOR2_X1 *C 50.12 29.22
*I *83:A2 I *L 884.109 *C 49.147 33.777
*N *89:3 *C 50.12 29.22
*N *89:4 *C 50.19 33.737
*N *89:5 *C 50.19 33.737
*N *89:6 *C 49.147 33.737
*N *89:7 *C 49.147 33.737

*CAP
1 *84:Z 0.0
2 *83:A2 0.01190681
3 *89:3 0.1381494
4 *89:4 0.04078099
5 *89:5 0.1377286
6 *89:6 0.04078099
7 *89:7 0.01190681

*RES
1 *89:3 *84:Z 2.982249
2 *89:4 *89:5 2.5
3 *89:6 *89:7 2.5
4 *89:7 *83:A2 2.982249
5 *89:3 *89:5 16.41964
6 *89:6 *89:4 3.223214

*END

*D_NET *90 7.517994

*CONN
*I *91:B1 I *L 1561.898 *C 64.857 48.96
*I *92:B2 I *L 1533.645 *C 33.402 65.812
*I *93:A2 I *L 1534.161 *C 32.587 67.387
*I *94:A I *L 1513.626 *C 82.49 65.83
*I *95:A I *L 1513.626 *C 70.832 65.812
*I *96:A I *L 1513.626 *C 77.807 64.587
*I *97:A2 I *L 1534.161 *C 82.612 65.812
*I *98:ZN O *L 0.0 *D INV_X1 *C 65.872 67.3
*N *90:9 *C 70.71 65.83
*N *90:10 *C 70.71 65.83
*N *90:11 *C 33.21 65.76
*N *90:12 *C 33.21 65.76
*N *90:13 *C 33.21 67.3
*N *90:14 *C 33.21 67.3
*N *90:15 *C 75.46 64.897
*N *90:16 *C 75.46 64.897
*N *90:17 *C 75.39 64.985
*N *90:18 *C 70.64 64.92
*N *90:19 *C 70.64 64.92
*N *90:20 *C 33.28 66.417
*N *90:21 *C 33.28 66.417
*N *90:22 *C 43.92 66.417
*N *90:23 *C 43.92 66.417
*N *90:24 *C 43.47 51.76
*N *90:25 *C 43.47 51.76
*N *90:26 *C 53.3 51.76
*N *90:27 *C 53.3 51.76
*N *90:28 *C 53.23 54.637
*N *90:29 *C 53.23 54.637
*N *90:30 *C 57.22 54.637
*N *90:31 *C 57.22 54.637
*N *90:32 *C 65.51 67.085
*N *90:33 *C 65.51 67.085
*N *90:34 *C 70.71 65.882
*N *90:35 *C 70.71 65.882
*N *90:36 *C 65.58 66.037
*N *90:37 *C 65.58 66.037
*N *90:38 *C 82.49 64.897
*N *90:39 *C 82.49 64.897
*N *90:40 *C 82.49 65.83
*N *90:41 *C 77.93 64.57
*N *90:42 *C 77.93 64.57
*N *90:43 *C 77.93 64.897
*N *90:44 *C 77.93 64.897
*N *90:45 *C 57.22 56.157
*N *90:46 *C 57.22 56.157
*N *90:47 *C 58.74 56.157
*N *90:48 *C 58.74 56.157
*N *90:49 *C 58.55 56.917
*N *90:50 *C 58.55 56.917
*N *90:51 *C 58.93 57.677
*N *90:52 *C 58.93 57.677
*N *90:53 *C 59.39 60.505
*N *90:54 *C 59.39 60.505
*N *90:55 *C 63.99 60.3
*N *90:56 *C 63.99 60.3
*N *90:57 *C 64.06 67.177
*N *90:58 *C 64.06 67.177
*N *90:59 *C 65.58 67.022
*N *90:60 *C 65.58 67.022
*N *90:61 *C 64.857 48.96
*N *90:62 *C 64.7 47.84
*N *90:63 *C 64.7 47.84
*N *90:64 *C 57.53 47.84
*N *90:65 *C 57.53 47.84
*N *90:66 *C 57.6 51.977
*N *90:67 *C 57.6 51.977
*N *90:68 *C 57.22 51.977
*N *90:69 *C 57.22 51.977
*N *90:70 *C 59.5 60.44
*N *90:71 *C 59.5 60.3
*N *90:72 *C 43.54 56.08
*N *90:73 *C 43.92 56.08
*N *90:74 *C 58.55 56.46
*N *90:75 *C 58.74 56.46
*N *90:76 *C 58.74 58.496
*N *90:77 *C 58.823 58.48
*N *90:78 *C 58.74 59.12
*N *90:79 *C 58.93 59.12
*N *90:80 *C 58.93 58.48
*N *90:81 *C 58.93 60.44
*N *90:82 *C 64.63 48.96
*N *90:83 *C 58.55 57.6

*CAP
1 *91:B1 0.0
2 *92:B2 0.01392389
3 *93:A2 0.03095174
4 *94:A 0.02298391
5 *95:A 0.01253071
6 *96:A 0.0111569
7 *97:A2 0.009969314
8 *98:ZN 0.02114839
9 *90:9 0.04657034
10 *90:10 0.01079323
11 *90:11 0.0301699
12 *90:12 0.01218641
13 *90:13 0.0313167
14 *90:14 0.02921427
15 *90:15 0.08578341
16 *90:16 0.01769016
17 *90:17 0.2526452
18 *90:18 0.03306806
19 *90:19 0.2332176
20 *90:20 0.2830435
21 *90:21 0.06280336
22 *90:22 0.2830435
23 *90:23 0.2897269
24 *90:24 0.1535573
25 *90:25 0.4691705
26 *90:26 0.1106787
27 *90:27 0.4691705
28 *90:28 0.1315282
29 *90:29 0.110258
30 *90:30 0.1315282
31 *90:31 0.1303905
32 *90:32 0.01021011
33 *90:33 0.01941092
34 *90:34 0.1639832
35 *90:35 0.01134408
36 *90:36 0.1639832
37 *90:37 0.03001728
38 *90:38 0.1348039
39 *90:39 0.03463307
40 *90:40 0.04980586
41 *90:41 0.02624326
42 *90:42 0.009419422
43 *90:43 0.2227455
44 *90:44 0.02582254
45 *90:45 0.05828518
46 *90:46 0.05069761
47 *90:47 0.05828518
48 *90:48 0.009282091
49 *90:49 0.02767384
50 *90:50 0.01296633
51 *90:51 0.01629405
52 *90:52 0.02085391
53 *90:53 0.01486198
54 *90:54 0.01097305
55 *90:55 0.1982047
56 *90:56 0.2021839
57 *90:57 0.05422075
58 *90:58 0.197784
59 *90:59 0.05422075
60 *90:60 0.04196487
61 *90:61 0.008739708
62 *90:62 0.04583446
63 *90:63 0.3026199
64 *90:64 0.1308555
65 *90:65 0.3026199
66 *90:66 0.0256471
67 *90:67 0.1304348
68 *90:68 0.0256471
69 *90:69 0.07753471
70 *90:70 0.01572024
71 *90:71 0.2069311
72 *90:72 0.1689156
73 *90:73 0.305506
74 *90:74 0.02261078
75 *90:75 0.01892653
76 *90:76 0.01928844
77 *90:77 0.008364084
78 *90:78 0.01921275
79 *90:79 0.03847664
80 *90:80 0.02673883
81 *90:81 0.05051443
82 *90:82 0.05718038
83 *90:83 0.04828429

*RES
1 *95:A *90:10 0.2502439
2 *90:9 *90:10 2.982249
3 *92:B2 *90:12 1.607693
4 *90:11 *90:12 2.982249
5 *90:13 *90:14 2.982249
6 *90:15 *90:16 2.5
7 *90:16 *90:17 2.982249
8 *90:18 *90:19 2.982249
9 *90:20 *90:21 2.5
10 *90:22 *90:23 2.5
11 *90:24 *90:25 2.982249
12 *90:26 *90:27 2.982249
13 *90:28 *90:29 2.5
14 *90:30 *90:31 2.5
15 *90:32 *90:33 2.982249
16 *90:34 *90:35 2.5
17 *90:36 *90:37 2.5
18 *90:38 *90:39 2.5
19 *97:A2 *94:A 0.5770371
20 *90:40 *94:A 2.982249
21 *96:A *90:42 0.2502439
22 *90:41 *90:42 2.982249
23 *90:43 *90:44 2.5
24 *90:45 *90:46 2.5
25 *90:47 *90:48 2.5
26 *90:49 *90:50 2.5
27 *90:51 *90:52 2.5
28 *90:53 *90:54 2.982249
29 *90:55 *90:56 2.982249
30 *90:57 *90:58 2.5
31 *90:59 *90:60 2.5
32 *90:61 *91:B1 5.964498
33 *90:62 *90:63 2.982249
34 *90:64 *90:65 2.982249
35 *90:66 *90:67 2.5
36 *90:68 *90:69 2.5
37 *93:A2 *90:14 4.077692
38 *90:25 *90:27 59.07539
39 *90:65 *90:63 43.52462
40 *90:54 *90:70 1e-07
41 *90:71 *90:56 27.24308
42 *90:71 *90:70 0.4384616
43 *90:33 *98:ZN 2.645385
44 *90:19 *90:17 29.37692
45 *90:11 *90:21 2.107143
46 *90:21 *90:13 2.910714
47 *90:24 *90:72 15.3125
48 *90:72 *90:73 1.357143
49 *90:73 *90:23 37.32143
50 *90:26 *90:29 10.5625
51 *90:69 *90:31 10.02679
52 *90:31 *90:46 5.955357
53 *90:64 *90:67 15.0625
54 *90:74 *90:75 0.9285715
55 *90:74 *90:50 2.035714
56 *90:48 *90:75 1.482143
57 *90:76 *90:77 0.35
58 *90:76 *90:78 2.169643
59 *90:78 *90:79 0.6785714
60 *90:77 *90:80 0.2896996
61 *90:52 *90:80 3.151786
62 *90:79 *90:81 4.714286
63 *90:81 *90:53 1.151786
64 *90:55 *90:58 24.84822
65 *90:62 *90:82 3.883929
66 *90:82 *90:61 0.9285715
67 *90:32 *90:60 0.125
68 *90:37 *90:60 3.901786
69 *90:35 *90:9 0.125
70 *90:18 *90:9 2.825714
71 *90:41 *90:44 2.1875
72 *90:39 *90:40 4.348214
73 *90:20 *90:22 37.5
74 *90:28 *90:30 13.75
75 *90:68 *90:66 0.8571429
76 *90:45 *90:47 4.928572
77 *90:49 *90:83 2.160714
78 *90:83 *90:51 0.9821427
79 *90:57 *90:59 5.053571
80 *90:36 *90:34 17.94643
81 *90:15 *90:43 8.571428
82 *90:43 *90:38 16.03571

*END

*D_NET *52 1.765002

*CONN
*I *99:A I *L 2993.269 *C 27.892 91.012
*P *52 I *C 0.035 94.46
*N *52:3 *C 26.932 94.46
*N *52:4 *C 26.932 94.46
*N *52:5 *C 26.932 91.04
*N *52:6 *C 26.932 91.04
*N *52:7 *C 27.77 91.117
*N *52:8 *C 27.77 91.117
*N *52:9 *C 27.77 91.03
*N *52:10 *C 4.185 94.46
*N *52:11 *C 27.01 94.46
*N *52:12 *C 27.01 94.197

*CAP
1 *99:A 0.01092024
2 *52 0.09980118
3 *52:3 0.01442078
4 *52:4 0.6346691
5 *52:5 0.07073898
6 *52:6 0.03207421
7 *52:7 0.03227726
8 *52:8 0.0162329
9 *52:9 0.02715314
10 *52:10 0.7368315
11 *52:11 0.007413168
12 *52:12 0.08246908

*RES
1 *52:3 *52:4 2.5
2 *52:5 *52:6 2.5
3 *52:7 *52:8 2.5
4 *99:A *52:9 0.2502439
5 *52:8 *52:9 2.982249
6 *52 *52:10 14.50893
7 *52:10 *52:4 40.82143
8 *52:6 *52:7 3.267857
9 *52:3 *52:11 0.105
10 *52:12 *52:3 0.249375
11 *52:5 *52:12 4.63125

*END

*D_NET *100 4.445858

*CONN
*I *99:ZN O *L 0.0 *D INV_X2 *C 28.055 91.1
*I *101:CK I *L 873.831 *C 35.085 77.015
*I *102:CK I *L 873.831 *C 15.325 77.015
*I *103:CK I *L 873.831 *C 41.355 81.385
*I *104:CK I *L 873.831 *C 54.845 88.215
*I *105:CK I *L 873.831 *C 53.705 82.615
*I *106:CK I *L 873.831 *C 47.625 88.215
*N *100:8 *C 54.75 88.145
*N *100:9 *C 54.75 88.145
*N *100:10 *C 54.75 88.457
*N *100:11 *C 54.75 88.457
*N *100:12 *C 47.53 88.139
*N *100:13 *C 47.53 88.139
*N *100:14 *C 47.53 88.457
*N *100:15 *C 47.53 88.457
*N *100:16 *C 41.45 81.44
*N *100:17 *C 41.45 81.44
*N *100:18 *C 41.45 81.462
*N *100:19 *C 34.912 81.54
*N *100:20 *C 34.912 81.54
*N *100:21 *C 53.61 82.595
*N *100:22 *C 53.61 82.595
*N *100:23 *C 53.61 82.602
*N *100:24 *C 53.687 82.68
*N *100:25 *C 53.687 88.38
*N *100:26 *C 53.687 88.38
*N *100:27 *C 34.912 88.38
*N *100:28 *C 34.912 88.38
*N *100:29 *C 34.99 76.993
*N *100:30 *C 34.99 76.993
*N *100:31 *C 34.99 77.282
*N *100:32 *C 34.99 77.282
*N *100:33 *C 15.42 76.98
*N *100:34 *C 15.42 76.98
*N *100:35 *C 15.42 77.437
*N *100:36 *C 15.42 77.437